Version 4
SHEET 1 880 756
WIRE -864 -48 -1008 -48
WIRE -688 -48 -784 -48
WIRE -400 -48 -688 -48
WIRE 112 -48 -400 -48
WIRE 224 -48 112 -48
WIRE -1008 -16 -1008 -48
WIRE 224 0 224 -48
WIRE 112 16 112 -48
WIRE 304 64 224 64
WIRE 32 80 -80 80
WIRE 64 80 32 80
WIRE -688 112 -688 -48
WIRE -400 112 -400 -48
WIRE -1008 128 -1008 64
WIRE -80 128 -80 80
WIRE 112 144 112 96
WIRE 224 144 224 64
WIRE 224 144 112 144
WIRE 304 176 304 64
WIRE 112 224 112 144
WIRE 224 224 224 144
WIRE 32 240 32 80
WIRE 64 240 32 240
WIRE 304 288 304 256
WIRE 112 336 112 304
WIRE 224 336 224 288
WIRE 224 336 112 336
WIRE 304 400 304 368
WIRE 112 416 112 336
FLAG 112 416 0
FLAG -688 176 0
FLAG -400 176 0
FLAG -1008 208 0
FLAG 64 32 0
FLAG 64 288 0
FLAG -80 208 0
FLAG 304 400 0
SYMBOL sw 112 0 R0
SYMATTR InstName S1
SYMATTR Value HISIDE
SYMBOL sw 112 208 R0
SYMATTR InstName S2
SYMATTR Value LOSIDE
SYMBOL diode 240 288 R180
WINDOW 0 24 64 Left 2
WINDOW 3 24 0 Left 2
SYMATTR InstName D1
SYMBOL diode 240 64 R180
WINDOW 0 24 64 Left 2
WINDOW 3 24 0 Left 2
SYMATTR InstName D2
SYMBOL cap -416 112 R0
SYMATTR InstName ODRIVE
SYMATTR Value 3.7m
SYMBOL cap -704 112 R0
SYMATTR InstName EXTRA
SYMATTR Value 50m
SYMBOL voltage -1008 112 R0
WINDOW 123 0 0 Left 0
WINDOW 39 0 0 Left 0
SYMATTR InstName battery
SYMATTR Value 12
SYMBOL voltage -80 112 R0
WINDOW 3 -278 132 Left 2
WINDOW 123 0 0 Left 0
WINDOW 39 0 0 Left 0
SYMATTR InstName V1
SYMATTR Value PULSE(0 1 1m 0 0 5u 41.7u 1100)
SYMBOL ind 288 160 R0
SYMATTR InstName L1
SYMATTR Value 20.2µ
SYMBOL res 288 272 R0
SYMATTR InstName R1
SYMATTR Value 39m
SYMBOL res -992 80 R180
WINDOW 0 36 76 Left 2
WINDOW 3 36 40 Left 2
SYMATTR InstName R2
SYMATTR Value 14m
SYMBOL ind -880 -32 R270
WINDOW 0 32 56 VTop 2
WINDOW 3 5 56 VBottom 2
SYMATTR InstName L3
SYMATTR Value 500n
TEXT -778 460 Left 2 !.tran 60m
TEXT -40 568 Left 2 !.model HISIDE SW(Ron=2.1m Roff=1Meg Vt=0.5 Vh=0)
TEXT -24 616 Left 2 !.model LOSIDE SW(Ron=2.1m Roff=1Meg Vt=-0.5 Vh=0)
